Cases/test/data_old/branch_specific/scenario_results_case9.csv
line_id,y_cos_f_w1_vm_from,y_cos_f_w2_vm_to,y_cos_f_w3_theta_i,y_cos_f_w4_theta_j,y_cos_f_bias,y_sin_f_w1_vm_from,y_sin_f_w2_vm_to,y_sin_f_w3_theta_i,y_sin_f_w4_theta_j,y_sin_f_bias
1_4,0.17734560274303574,0.17681997123032364,-3.221370627218572e-31,0.3673350075714078,0.7916516110564047,-0.36742371313545386,-0.3991596717149233,6.972808240772874e-31,-0.7951184698630774,0.9395693893141088
3_6,0.9974735314505876,4.5056424621871836e-08,0.1865757490029729,0.6669400050959507,-0.002821676667743578,-0.002712783146476827,-5.6363050555867485e-08,-0.23274681646882317,-0.8330980165366215,0.08273152253983115
4_5,0.980970363670854,0.2032445324911092,0.06277858847292567,0.17697733977919794,-0.21180325941819733,0.03695800160664464,-0.3533624022908773,-0.1100141506883526,-0.30775501248268505,0.3752314273853254
5_6,0.2944094025459375,7.219921657927611e-09,0.256406730782672,0.10657449873102656,0.8589487623295042,0.2974816149512291,7.295262773703482e-09,0.259082378816664,0.10768662182987394,-0.4297406380775104
6_7,9.137383460977588e-09,0.13461986212169444,0.13487847877245346,0.18291482216438323,1.0401213169525394,-7.250254924207056e-09,-0.10681704710527765,-0.10702225209160696,-0.14513772980783438,0.16304671341160085
7_8,0.19001813938914353,-0.004141974540818498,0.2581115944676313,0.04921210096749967,0.9814342178239506,0.4454728120731628,-0.008283947794358315,0.6051351196269301,0.11539388240083541,-0.5523323088570135
8_2,-0.8852028250026787,-0.10780684980034483,-0.20092759747632732,0.604521252848338,2.3566617219350223,0.537795075568636,-0.5442481233063192,0.269117836818685,-0.8422033521515928,-0.010658860705198475
8_9,-0.003446379095053076,0.24478699233632537,0.1053603655984745,0.27162690355783375,0.9155947372852475,0.0041356544627344505,-0.30756021891088675,-0.13238213181393882,-0.3412830955528809,0.4377498053308669
9_4,0.2744590281808001,-0.004621421264122072,0.30510495767572704,0.3934707320859062,0.9026004537422896,-0.1088770342597273,0.03339441256969765,-0.12107953289939175,-0.15617003307945088,0.021735746775361026
